/*--------------------------------*- C++ -*----------------------------------*\
| =========                 |                                                 |
| \\      /  F ield         | OpenFOAM: The Open Source CFD Toolbox           |
|  \\    /   O peration     | Version:  v2012                                 |
|   \\  /    A nd           | Website:  www.openfoam.com                      |
|    \\/     M anipulation  |                                                 |
\*---------------------------------------------------------------------------*/
FoamFile
{
    version     2.0;
    format      ascii;
    class       dictionary;
    object      changeDictionaryDict;
}
// * * * * * * * * * * * * * * * * * * * * * * * * * * * * * * * * * * * * * //

boundary
{
    AMIs
    {
      type            cyclicAMI;
      neighbourPatch  AMIr;
      transform       noOrdering;
      matchTolerance  0.0001;
    }
    
    AMIr
    {
      type            cyclicAMI;
      neighbourPatch  AMIs;
      transform       noOrdering;
      matchTolerance  0.0001;
    }
}

// ************************************************************************* //
