/*--------------------------------*- C++ -*----------------------------------*\
| =========                 |                                                 |
| \\      /  F ield         | OpenFOAM: The Open Source CFD Toolbox           |
|  \\    /   O peration     | Version:  v2012                                 |
|   \\  /    A nd           | Website:  www.openfoam.com                      |
|    \\/     M anipulation  |                                                 |
\*---------------------------------------------------------------------------*/
FoamFile
{
    version     2.0;
    format      ascii;
    class       dictionary;
    object      blockMeshDict;
}
// * * * * * * * * * * * * * * * * * * * * * * * * * * * * * * * * * * * * * //

scale   1;

vertices
(
    (-0.21 -0.06 -0.21)
    ( 0.21 -0.06 -0.21)
    ( 0.21  0.06 -0.21)
    (-0.21  0.06 -0.21)

    (-0.21 -0.06  0.21)
    ( 0.21 -0.06  0.21)
    ( 0.21  0.06  0.21)
    (-0.21  0.06  0.21)

);

blocks
(
    hex (0 1 2 3 4 5 6 7) rotor (42 16 42) simpleGrading (
	                                               1 
	                                               // (fraction of the block, fraction of the divisions, grading ratio)
                                                       //( (0.4 25 0.2) (0.1 15 1) (0.4 25 5) )  
						       1
						       1
						      )
);

edges
(
);

boundary
(
);

mergePatchPairs
(
);

// ************************************************************************* //
