/*--------------------------------*- C++ -*----------------------------------*\
| =========                 |                                                 |
| \\      /  F ield         | OpenFOAM: The Open Source CFD Toolbox           |
|  \\    /   O peration     | Version:  v2012                                 |
|   \\  /    A nd           | Website:  www.openfoam.com                      |
|    \\/     M anipulation  |                                                 |
\*---------------------------------------------------------------------------*/
FoamFile
{
    version     2.0;
    format      ascii;
    class       volScalarField;
    object      k;
}
// * * * * * * * * * * * * * * * * * * * * * * * * * * * * * * * * * * * * * //

dimensions      [0 2 -2 0 0 0 0];

internalField   uniform 1e-4;

boundaryField
{
    #includeEtc "caseDicts/setConstraintTypes"

    atmosphere
    {
        type            inletOutlet;
        inletValue      $internalField;
        value           $internalField;
    }

    coil
    {
        type            kqRWallFunction;
        value           $internalField;
    }
       
    
    side
    {
        type            kqRWallFunction;
        value           $internalField;
    }
    
    
    bottom
    {
        type            kqRWallFunction;
        value           $internalField;
    }
    
    
    AMIs
    {
        type            cyclicAMI;
    }
    
    AMIr
    {
        type            cyclicAMI;
    }
}

// ************************************************************************* //
