/*--------------------------------*- C++ -*----------------------------------*\
| =========                 |                                                 |
| \\      /  F ield         | OpenFOAM: The Open Source CFD Toolbox           |
|  \\    /   O peration     | Version:  v2012                                 |
|   \\  /    A nd           | Website:  www.openfoam.com                      |
|    \\/     M anipulation  |                                                 |
\*---------------------------------------------------------------------------*/
FoamFile
{
    version     2.0;
    format      ascii;
    class       dictionary;
    object      blockMeshDict;
}
// * * * * * * * * * * * * * * * * * * * * * * * * * * * * * * * * * * * * * //

scale   1;

vertices
(
    (-0.3 -0.3 -0.3)
    ( 0.3 -0.3 -0.3)
    ( 0.3  0.3 -0.3)
    (-0.3  0.3 -0.3)

    (-0.3 -0.3  0.3)
    ( 0.3 -0.3  0.3)
    ( 0.3  0.3  0.3)
    (-0.3  0.3  0.3)

);

blocks
(
    hex (0 1 2 3 4 5 6 7) (60 60 60) simpleGrading (
	                                               1 
	                                               1
						       // (fraction of the block, fraction of the divisions, grading ratio)
                                                       //( (0.5 0.5 0.1) (0.5 0.5 10) )  
						       1
						      )
);

edges
(
);

boundary
(
    atmosphere
    {
        type patch;
        faces
        (
            (4 5 6 7)
        );
    }
    bottom
    {
        type wall;
        faces
        (
            (0 3 2 1)
	);
    }
    side
    {
        type wall;
        faces
        (
            (0 1 5 4)(1 2 6 5)(2 3 7 6)(3 0 4 7)
	);
    }
);

mergePatchPairs
(
);

// ************************************************************************* //
